MODFLOW Data Set Created by Groundwater Vistas
   
        20         1        20         1         4         1         0
 11  0  0  0  0  0  0  0 19  0  0 22  0  0  0  0  0  0  0  0  0  0  0  0  0  0  0  0
         0         1
         0         1(25I3)                      -1     IBOUND Layer   1
         0         1(25I3)                      -1     IBOUND Layer   2
         0         1(25I3)                      -1     IBOUND Layer   3
         0         1(25I3)                      -1     IBOUND Layer   4
         0         1(25I3)                      -1     IBOUND Layer   5
         0         1(25I3)                      -1     IBOUND Layer   6
         0         1(25I3)                      -1     IBOUND Layer   7
         0         1(25I3)                      -1     IBOUND Layer   8
         0         1(25I3)                      -1     IBOUND Layer   9
         0         1(25I3)                      -1     IBOUND Layer  10
         0         1(25I3)                      -1     IBOUND Layer  11
         0         1(25I3)                      -1     IBOUND Layer  12
         0         1(25I3)                      -1     IBOUND Layer  13
         0         1(25I3)                      -1     IBOUND Layer  14
         0         1(25I3)                      -1     IBOUND Layer  15
         0         1(25I3)                      -1     IBOUND Layer  16
         0         1(25I3)                      -1     IBOUND Layer  17
         0         1(25I3)                      -1     IBOUND Layer  18
         0         1(25I3)                      -1     IBOUND Layer  19
         0         1(25I3)                      -1     IBOUND Layer  20
9.9900e+02
         00.0000e+00(10e12.4)                   -1     STARTING HEADS Layer   1
         00.0000e+00(10e12.4)                   -1     STARTING HEADS Layer   2
         00.0000e+00(10e12.4)                   -1     STARTING HEADS Layer   3
         00.0000e+00(10e12.4)                   -1     STARTING HEADS Layer   4
         00.0000e+00(10e12.4)                   -1     STARTING HEADS Layer   5
         00.0000e+00(10e12.4)                   -1     STARTING HEADS Layer   6
         00.0000e+00(10e12.4)                   -1     STARTING HEADS Layer   7
         00.0000e+00(10e12.4)                   -1     STARTING HEADS Layer   8
         00.0000e+00(10e12.4)                   -1     STARTING HEADS Layer   9
         00.0000e+00(10e12.4)                   -1     STARTING HEADS Layer  10
         00.0000e+00(10e12.4)                   -1     STARTING HEADS Layer  11
         00.0000e+00(10e12.4)                   -1     STARTING HEADS Layer  12
         00.0000e+00(10e12.4)                   -1     STARTING HEADS Layer  13
         00.0000e+00(10e12.4)                   -1     STARTING HEADS Layer  14
         00.0000e+00(10e12.4)                   -1     STARTING HEADS Layer  15
         00.0000e+00(10e12.4)                   -1     STARTING HEADS Layer  16
         00.0000e+00(10e12.4)                   -1     STARTING HEADS Layer  17
         0     1.250(10e12.4)                   -1     STARTING HEADS Layer  18
         0     3.750(10e12.4)                   -1     STARTING HEADS Layer  19
         0     6.250(10e12.4)                   -1     STARTING HEADS Layer  20
5.0000e+04         1    1.0000
